CHN
APtclcactv07111305413D 0   0.00000     0.00000
 
  3  2  0  0  0  0  0  0  0  0999 V2000
    0.5497    0.0000    0.0000 C   0  0  0  0  0  0  0  0  0  0  0  0
   -0.5863   -0.0000   -0.0000 N   0  0  0  0  0  0  0  0  0  0  0  0
    1.5997   -0.0000   -0.0000 H   0  0  0  0  0  0  0  0  0  0  0  0
  1  2  3  0  0  0  0
  1  3  1  0  0  0  0
M  END
