WATER_BOX
  WLViewer          3D                             0

 96 64  0  0  0  0  0  0  0  0999 V2000
    4.9630    5.0490    4.9980 O   0  0  0  0  0  0  0  0  0  1
    5.8910    5.0620    5.2440 H   0  0  0  0  0  0  0  0  0  2
    4.7000    4.1500    4.7870 H   0  0  0  0  0  0  0  0  0  3
    1.8370    6.9610    2.3380 O   0  0  0  0  0  0  0  0  0  4
    1.8510    7.4900    3.1850 H   0  0  0  0  0  0  0  0  0  5
    1.1230    6.2970    2.5960 H   0  0  0  0  0  0  0  0  0  6
    2.9320    4.2490    1.9150 O   0  0  0  0  0  0  0  0  0  7
    2.4340    4.5940    1.1270 H   0  0  0  0  0  0  0  0  0  8
    2.3190    3.6250    2.3790 H   0  0  0  0  0  0  0  0  0  9
    9.4480    3.3440    0.9860 O   0  0  0  0  0  0  0  0  0 10
    8.6140    3.6200    0.6580 H   0  0  0  0  0  0  0  0  0 11
    9.1770    2.9710    1.8450 H   0  0  0  0  0  0  0  0  0 12
    6.5860    4.4890    0.8320 O   0  0  0  0  0  0  0  0  0 13
    6.6550    4.6400    1.7490 H   0  0  0  0  0  0  0  0  0 14
    5.9240    5.1410    0.6410 H   0  0  0  0  0  0  0  0  0 15
    8.2780    6.0070    6.7400 O   0  0  0  0  0  0  0  0  0 16
    8.9280    5.2990    6.5570 H   0  0  0  0  0  0  0  0  0 17
    8.7090    6.6680    6.1010 H   0  0  0  0  0  0  0  0  0 18
    0.7340    2.3670    0.0410 O   0  0  0  0  0  0  0  0  0 19
    0.8130    2.2570    1.0250 H   0  0  0  0  0  0  0  0  0 20
    0.9030    1.4530   -0.2460 H   0  0  0  0  0  0  0  0  0 21
    5.1600    2.0250    1.8140 O   0  0  0  0  0  0  0  0  0 22
    4.4470    2.5530    2.1910 H   0  0  0  0  0  0  0  0  0 23
    5.8920    2.3800    2.3350 H   0  0  0  0  0  0  0  0  0 24
    6.6190    5.8730    3.5060 O   0  0  0  0  0  0  0  0  0 25
    7.3810    6.3410    3.7050 H   0  0  0  0  0  0  0  0  0 26
    6.1110    6.5550    2.9160 H   0  0  0  0  0  0  0  0  0 27
    7.7310    9.3410    3.0310 O   0  0  0  0  0  0  0  0  0 28
    7.0800   10.0460    3.3170 H   0  0  0  0  0  0  0  0  0 29
    7.1660    8.9950    2.2540 H   0  0  0  0  0  0  0  0  0 30
    9.1230    1.1130    3.0610 O   0  0  0  0  0  0  0  0  0 31
    8.5050    1.6690    3.5000 H   0  0  0  0  0  0  0  0  0 32
    9.6260    0.8460    3.8740 H   0  0  0  0  0  0  0  0  0 33
    3.7070    5.1410    7.7410 O   0  0  0  0  0  0  0  0  0 34
    3.8790    6.0900    8.0210 H   0  0  0  0  0  0  0  0  0 35
    3.9610    5.0890    6.7840 H   0  0  0  0  0  0  0  0  0 36
    2.8360    2.2310    5.2570 O   0  0  0  0  0  0  0  0  0 37
    3.1360    1.9360    6.1810 H   0  0  0  0  0  0  0  0  0 38
    3.2560    3.1070    5.2180 H   0  0  0  0  0  0  0  0  0 39
    1.0220    1.9200    3.2380 O   0  0  0  0  0  0  0  0  0 40
    0.2900    2.2320    3.7190 H   0  0  0  0  0  0  0  0  0 41
    1.6750    1.7960    3.9390 H   0  0  0  0  0  0  0  0  0 42
    6.7750    3.0600    3.7780 O   0  0  0  0  0  0  0  0  0 43
    6.7980    4.0060    3.5880 H   0  0  0  0  0  0  0  0  0 44
    6.9810    3.1380    4.7550 H   0  0  0  0  0  0  0  0  0 45
    3.8370    8.1220    7.9740 O   0  0  0  0  0  0  0  0  0 46
    4.7610    7.9050    8.1190 H   0  0  0  0  0  0  0  0  0 47
    3.8350    8.9640    7.4730 H   0  0  0  0  0  0  0  0  0 48
    3.8850    2.1170    8.1110 O   0  0  0  0  0  0  0  0  0 49
    3.8210    3.0470    7.8520 H   0  0  0  0  0  0  0  0  0 50
    4.3210    2.3460    9.0460 H   0  0  0  0  0  0  0  0  0 51
    3.8400    4.5830    4.8000 O   0  0  0  0  0  0  0  0  0 52
    3.2480    5.3340    4.5000 H   0  0  0  0  0  0  0  0  0 53
    4.4950    4.6280    4.1130 H   0  0  0  0  0  0  0  0  0 54
    8.1830    9.4690    7.6990 O   0  0  0  0  0  0  0  0  0 55
    7.7560    9.9260    6.9560 H   0  0  0  0  0  0  0  0  0 56
    8.9920    9.2370    7.1590 H   0  0  0  0  0  0  0  0  0 57
    6.4570    7.2270    8.3010 O   0  0  0  0  0  0  0  0  0 58
    7.0830    7.9440    8.0570 H   0  0  0  0  0  0  0  0  0 59
    6.8420    6.6010    7.6520 H   0  0  0  0  0  0  0  0  0 60
    1.1230    6.3960    5.6070 O   0  0  0  0  0  0  0  0  0 61
    1.3330    7.2920    5.3020 H   0  0  0  0  0  0  0  0  0 62
    1.0340    6.4830    6.5570 H   0  0  0  0  0  0  0  0  0 63
    6.9120    3.3520    6.4680 O   0  0  0  0  0  0  0  0  0 64
    6.8300    4.3800    6.5010 H   0  0  0  0  0  0  0  0  0 65
    7.5110    3.2700    7.3160 H   0  0  0  0  0  0  0  0  0 66
    5.5360    0.8850    6.4370 O   0  0  0  0  0  0  0  0  0 67
    6.1510    1.6790    6.5730 H   0  0  0  0  0  0  0  0  0 68
    4.7770    1.2540    7.0130 H   0  0  0  0  0  0  0  0  0 69
    2.2060    8.9840    4.4470 O   0  0  0  0  0  0  0  0  0 70
    1.7190    9.6940    3.9480 H   0  0  0  0  0  0  0  0  0 71
    2.7050    9.4620    5.0450 H   0  0  0  0  0  0  0  0  0 72
    2.1480    0.4450    9.5480 O   0  0  0  0  0  0  0  0  0 73
    2.4520    0.9280   10.3820 H   0  0  0  0  0  0  0  0  0 74
    2.7650    0.7830    8.8540 H   0  0  0  0  0  0  0  0  0 75
    1.2590    7.7970    7.9880 O   0  0  0  0  0  0  0  0  0 76
    0.9030    8.6010    8.4230 H   0  0  0  0  0  0  0  0  0 77
    2.2430    7.9330    7.9910 H   0  0  0  0  0  0  0  0  0 78
    1.3810    5.1930    9.5900 O   0  0  0  0  0  0  0  0  0 79
    0.5990    4.8740    9.1010 H   0  0  0  0  0  0  0  0  0 80
    2.0100    5.0590    8.8890 H   0  0  0  0  0  0  0  0  0 81
    8.1040    3.2260    8.8600 O   0  0  0  0  0  0  0  0  0 82
    8.7440    3.6920    9.4060 H   0  0  0  0  0  0  0  0  0 83
    8.4620    2.3260    9.0170 H   0  0  0  0  0  0  0  0  0 84
    9.3100    0.8010    8.9050 O   0  0  0  0  0  0  0  0  0 85
    9.0750   -0.0130    8.4730 H   0  0  0  0  0  0  0  0  0 86
    9.4990    0.4230    9.7840 H   0  0  0  0  0  0  0  0  0 87
    8.6700    6.3510    0.0900 O   0  0  0  0  0  0  0  0  0 88
    7.8130    5.9650    0.2480 H   0  0  0  0  0  0  0  0  0 89
    8.4030    6.9140   -0.6830 H   0  0  0  0  0  0  0  0  0 90
    5.6100    7.7690    1.8150 O   0  0  0  0  0  0  0  0  0 91
    5.0900    8.5420    1.7280 H   0  0  0  0  0  0  0  0  0 92
    5.5480    7.5290    0.8730 H   0  0  0  0  0  0  0  0  0 93
    9.4070    7.6310    4.4110 O   0  0  0  0  0  0  0  0  0 94
    9.0330    8.4250    3.9330 H   0  0  0  0  0  0  0  0  0 95
   10.1760    7.5850    3.7840 H   0  0  0  0  0  0  0  0  0 96
  1  3  1  0  0  0
  1  2  1  0  0  0
  4  5  1  0  0  0
  4  6  1  0  0  0
  7  9  1  0  0  0
  7  8  1  0  0  0
 10 11  1  0  0  0
 10 12  1  0  0  0
 13 15  1  0  0  0
 13 14  1  0  0  0
 16 17  1  0  0  0
 16 18  1  0  0  0
 19 20  1  0  0  0
 19 21  1  0  0  0
 22 24  1  0  0  0
 22 23  1  0  0  0
 25 26  1  0  0  0
 25 27  1  0  0  0
 28 29  1  0  0  0
 28 30  1  0  0  0
 31 32  1  0  0  0
 31 33  1  0  0  0
 34 35  1  0  0  0
 34 36  1  0  0  0
 37 38  1  0  0  0
 37 39  1  0  0  0
 40 41  1  0  0  0
 40 42  1  0  0  0
 43 45  1  0  0  0
 43 44  1  0  0  0
 46 47  1  0  0  0
 46 48  1  0  0  0
 49 50  1  0  0  0
 49 51  1  0  0  0
 52 54  1  0  0  0
 52 53  1  0  0  0
 55 56  1  0  0  0
 55 57  1  0  0  0
 58 59  1  0  0  0
 58 60  1  0  0  0
 61 63  1  0  0  0
 61 62  1  0  0  0
 64 65  1  0  0  0
 64 66  1  0  0  0
 67 68  1  0  0  0
 67 69  1  0  0  0
 70 71  1  0  0  0
 70 72  1  0  0  0
 73 75  1  0  0  0
 73 74  1  0  0  0
 76 78  1  0  0  0
 76 77  1  0  0  0
 79 81  1  0  0  0
 79 80  1  0  0  0
 82 84  1  0  0  0
 82 83  1  0  0  0
 85 87  1  0  0  0
 85 86  1  0  0  0
 88 89  1  0  0  0
 88 90  1  0  0  0
 91 92  1  0  0  0
 91 93  1  0  0  0
 94 96  1  0  0  0
 94 95  1  0  0  0
M  END
