O3S
APtclcactv07101309383D 0   0.00000     0.00000
 
  4  3  0  0  0  0  0  0  0  0999 V2000
   -0.0000    0.0000   -0.0014 S   0  0  0  0  0  0  0  0  0  0  0  0
   -1.4376    0.8300    0.0009 O   0  0  0  0  0  0  0  0  0  0  0  0
    1.4376    0.8300    0.0009 O   0  0  0  0  0  0  0  0  0  0  0  0
    0.0000   -1.6600    0.0009 O   0  0  0  0  0  0  0  0  0  0  0  0
  1  2  2  0  0  0  0
  1  3  2  0  0  0  0
  1  4  2  0  0  0  0
M  END
