H4N2
APtclcactv07111305433D 0   0.00000     0.00000
 
  6  5  0  0  0  0  0  0  0  0999 V2000
    0.7260    0.0383   -0.0491 N   0  0  0  0  0  0  0  0  0  0  0  0
   -0.7260   -0.0383   -0.0491 N   0  0  0  0  0  0  0  0  0  0  0  0
    1.0593    0.5828    0.7322 H   0  0  0  0  0  0  0  0  0  0  0  0
    1.1367   -0.8833   -0.0491 H   0  0  0  0  0  0  0  0  0  0  0  0
   -1.0593   -0.5828    0.7322 H   0  0  0  0  0  0  0  0  0  0  0  0
   -1.1367    0.8833   -0.0491 H   0  0  0  0  0  0  0  0  0  0  0  0
  1  2  1  0  0  0  0
  1  3  1  0  0  0  0
  1  4  1  0  0  0  0
  2  5  1  0  0  0  0
  2  6  1  0  0  0  0
M  END
