H3P
APtclcactv07101302013D 0   0.00000     0.00000
 
  4  3  0  0  0  0  0  0  0  0999 V2000
   -0.0000   -0.0000    0.0557 P   0  0  0  0  0  0  0  0  0  0  0  0
   -0.0803   -1.2717   -0.5709 H   0  0  0  0  0  0  0  0  0  0  0  0
    1.1415    0.5663   -0.5709 H   0  0  0  0  0  0  0  0  0  0  0  0
   -1.0612    0.7054   -0.5709 H   0  0  0  0  0  0  0  0  0  0  0  0
  1  2  1  0  0  0  0
  1  3  1  0  0  0  0
  1  4  1  0  0  0  0
M  END
