HNO3
APtclcactv07101302113D 0   0.00000     0.00000
 
  5  4  0  0  0  0  0  0  0  0999 V2000
   -0.0804    0.0027    0.0014 N   0  3  0  0  0  0  0  0  0  0  0  0
   -0.5328   -1.1282   -0.0004 O   0  0  0  0  0  0  0  0  0  0  0  0
    1.3211    0.2045   -0.0002 O   0  0  0  0  0  0  0  0  0  0  0  0
   -0.8336    0.9599   -0.0005 O   0  5  0  0  0  0  0  0  0  0  0  0
    1.8363   -0.6138   -0.0027 H   0  0  0  0  0  0  0  0  0  0  0  0
  1  2  2  0  0  0  0
  1  3  1  0  0  0  0
  1  4  1  0  0  0  0
  3  5  1  0  0  0  0
M  CHG  2   1   1   4  -1
M  END
